The start time is: Sun, 19 Jun 2022 15:20:23
Input file: C:\Users\Sumpaame\Desktop\FYP\PubChem_compound_2100.sdf
Output file: C:\Users\Sumpaame\Desktop\FYP\Mold2\Windows\output.txt
Report file: C:\Users\Sumpaame\Desktop\FYP\Mold2\Windows\report.txt

ReadIn_ID	USER_ID	Status	Time(s)
1165		Ok	0
1164		Ok	0.078
1163		Ok	0
1162		Ok	0.015
1161		Ok	0
1160		Ok	0.016
1159		Ok	0
1158		Ok	0
1157		Ok	0
1156		Ok	0.016
1155		Ok	0
1154		Ok	0
1153		Ok	0.093
1152		Ok	0.016
1151		Ok	0
1150		Subgroup deleted	0.016
1149		Subgroup deleted	0
1148		Ok	0
1147		Ok	0.109
1146		Ok	0.016
1145		Ok	0.015
1144		Ok	0
1143		Ok	0
1142		Ok	0.016
1141		Ok	0
1140		Ok	0.031
1139		Ok	0
1138		Ok	0.016
1137		Ok	0
1136		Ok	0.015
1135		Ok	0.016
1134		Subgroup deleted	0.062
1133		Ok	0.016
1132		Ok	0.062
1131		Subgroup deleted	0
1130		Ok	0.016
1129		Ok	0
1128		Ok	0
1127		Ok	0.016
1126		Subgroup deleted	0
1125		Ok	0
1124		Ok	0.015
1123		Ok	0
1122		Ok	0
1121		Ok	0.016
1120		Ok	0
1119		Ok	0
1118		Ok	0
1117		Ok	0.015
1116		Ok	0
1115		Ok	0.016
1114		Ok	0
1113		Ok	0
1112		Ok	0.016
1111		Ok	0.015
1110		Ok	0.016
1109		Ok	0
1108		Ok	0.016
1107		Ok	0
1106		Ok	0.015
1105		Ok	0.016
1104		Ok	0
1103		Ok	0.015
1102		Ok	0
1101		Ok	0.016
1100		Ok	0.016
1099		Subgroup deleted	0
1098		Ok	0.015
1097		Ok	0.016
1096		Ok	0.009
1095		Ok	0.017
1094		Ok	0.036
1093		Ok	0
1092		Ok	0
1091		Ok	0.015
1090		Ok	0
1089		Subgroup deleted	0.016
1088		Ok	0.016
1087		Ok	0.019
1086		Ok	0.021
1085		Ok	0.016
1084		Subgroup deleted	0.016
1083		Subgroup deleted	0.015
1082		Ok	0.032
1081		Ok	0
1080		Ok	0.015
1079		Ok	0
1078		Ok	0.016
1077		Ok	0
1076		Ok	0.016
1075		Ok	0.031
1074		Ok	0.015
1073		Ok	0.016
1072		Ok	0.031
1071		Ok	0.018
1070		Ok	0.015
1069		Subgroup deleted	0.031
1068		Ok	0.032
1067		Subgroup deleted	0.015
1066		Ok	0.016
1065		Ok	0.016
1064		Ok	0.015
1063		Ok	0
1062		Ok	0.047
1061		Ok	0.006
1060		Ok	0.031
1059		Ok	0.016
1058		Ok	0
1057		Ok	0.031
1056		Ok	0.047
1055		Ok	0.016
1054		Ok	0.047
1053		Ok	0.015
1052		Ok	0
1051		Ok	0.016
1050		Ok	0.031
1049		Ok	0.078
1048		Ok	0.016
1047		Ok	0.015
1046		Ok	0.016
1045		Ok	0.016
1044		Ok	0.015
1043		Ok	0.016
1042		Ok	0
1041		Ok	0.016
1040		Ok	0.015
1039		Ok	0.016
1038		Ok	0.015
1037		Ok	0.016
1036		Ok	0.016
1035		Ok	0
1034		Ok	0.015
1033		Ok	0.016
1032		Ok	0.187
1031		Ok	0.015
1030		Ok	0.016
1029		Ok	0.031
1028		Ok	0.016
1027		Ok	0.031
1026		Ok	0.016
1025		Ok	0.031
1024		Ok	0.015
1023		Ok	0.022
1022		Ok	0.031
1021		Ok	0.016
1020		Ok	0.016
1019		Ok	0.015
1018		Ok	0.016
1017		Ok	0.031
1016		Ok	0.016
1015		Ok	0.031
1014		Ok	0
1013		Ok	0.031
1012		Ok	0.016
1011		Ok	0.016
1010		Ok	0.015
1009		Ok	0.016
1008		Ok	0
1007		Ok	0.015
1006		Ok	0.032
1005		Ok	0.015
1004		Ok	0.016
1003		Ok	0.016
1002		Ok	0
1001		Ok	0.015
1000		Ok	0.016
999		Ok	0
998		Ok	0.015
997		Ok	0.016
996		Ok	0
995		Ok	0.016
994		Ok	0.015
993		Ok	0
992		Ok	0.016
991		Ok	0.015
990		Ok	0.016
989		Ok	0
988		Ok	0.016
987		Ok	0
986		Ok	0.015
985		Ok	0.016
984		Ok	0
983		Ok	0.031
982		Ok	0
981		Ok	0.016
980		Ok	0.015
979		Ok	0.016
978		Ok	0.016
977		Ok	0.015
976		Ok	0.032
975		Ok	0.031
974		Ok	0.015
973		Ok	0
972		Ok	0.016
971		Ok	0.016
970		Ok	0.015
969		Ok	0.032
968		Ok	0.015
967		Ok	0
966		Ok	0.016
965		Ok	0.015
964		Ok	0
963		Ok	0.016
962		Ok	0
961		Ok	0.016
960		Ok	0.015
959		Ok	0
958		Ok	0.016
957		Ok	0
956		Ok	0.016
955		Ok	0.015
954		Ok	0.016
953		Ok	0.015
952		Ok	0
951		Ok	0.016
950		Ok	0.016
949		Ok	0.015
948		Ok	0.016
947		Ok	0
946		Ok	0.016
945		Ok	0.015
944		Ok	0.016
943		Ok	0
942		Ok	0.062
941		Ok	0
940		Ok	0.016
939		Ok	0.016
938		Ok	0.015
937		Ok	0.016
936		Ok	0
935		Ok	0.062
934		Ok	0.016
933		Ok	0
932		Ok	0.187
931		Ok	0.016
930		Ok	0
929		Ok	0.015
928		Ok	0.016
927		Ok	0.015
926		Ok	0.016
925		Ok	0.016
924		Ok	0.021
923		Ok	0.016
922		Ok	0.016
921		Ok	0
920		Ok	0.015
919		Ok	0.016
918		Ok	0.015
917		Ok	0
916		Ok	0.016
915		Ok	0.016
914		Ok	0
913		Ok	0.015
912		Ok	0.016
911		Ok	0.016
910		Ok	0
909		Ok	0.015
908		Ok	0.016
907		Ok	0.016
906		Ok	0.015
905		Ok	0.016
904		Ok	0
903		Ok	0.015
902		Ok	0.016
901		Ok	0.031
900		Ok	0.016
899		Ok	0.016
898		Ok	0
897		Ok	0.015
896		Ok	0.016
895		Ok	0.015
894		Ok	0.016
893		Ok	0
892		Ok	0.016
891		Ok	0.015
890		Ok	0.016
889		Ok	0
888		Ok	0.015
887		Ok	0.016
886		Ok	0
885		Ok	0.016
884		Ok	0.015
883		Ok	0
882		Ok	0.016
881		Ok	0.016
880		Ok	0
879		Ok	0.015
878		Ok	0.016
877		Ok	0.016
876		Ok	0
875		Ok	0.015
874		Ok	0.016
873		Ok	0.015
872		Ok	0.016
871		Ok	0
870		Ok	0.031
869		Ok	0.016
868		Ok	0.031
867		Ok	0.016
866		Ok	0.015
865		Ok	0.016
864		Ok	0.016
863		Ok	0.015
862		Ok	0.016
861		Ok	0.016
860		Ok	0.031
859		Ok	0
858		Ok	0.015
857		Ok	0.016
856		Ok	0.016
855		Ok	0
854		Ok	0.031
853		Ok	0.015
852		Ok	0.032
851		Ok	0.015
850		Ok	0.032
849		Ok	0.047
848		Ok	0.015
847		Ok	0.031
846		Ok	0.047
845		Ok	0.016
844		Ok	0.047
843		Ok	0.031
842		Ok	0.031
841		Ok	0.125
840		Ok	0.078
839		Ok	0.016
838		Ok	0.016
837		Ok	0.015
836		Ok	0.016
835		Ok	0
834		Ok	0.016
833		Ok	0.046
832		Ok	0.203
831		Ok	0.031
830		Ok	0
829		Ok	0.062
828		Ok	0
827		Ok	0.016
826		Ok	0.016
825		Ok	0.015
824		Ok	0.016
823		Ok	0.015
822		Ok	0.016
821		Ok	0.063
820		Ok	0.015
819		Ok	0.047
818		Ok	0.078
817		Ok	0.047
816		Ok	0.016
815		Ok	0.015
814		Ok	0.032
813		Ok	0.015
812		Ok	0.031
811		Ok	0.016
810		Ok	0
809		Ok	0.063
808		Ok	0.015
807		Ok	0.031
806		Ok	0.063
805		Ok	0
804		Ok	0.016
803		Ok	0.078
802		Ok	0
801		Ok	0.031
800		Ok	0
799		Ok	0.031
798		Ok	0.063
797		Ok	0.015
796		Ok	0.047
795		Ok	0.016
794		Ok	0.047
793		Ok	0.015
792		Ok	0.016
791		Ok	0.062
790		Ok	0.094
789		Ok	0.016
788		Ok	0.062
787		Ok	0.032
786		Ok	0.078
785		Ok	0.078
784		Ok	0
783		Ok	0.031
782		Ok	0.078
781		Ok	0.094
780		Ok	0
779		Ok	0.016
778		Ok	0
777		Ok	0.062
776		Ok	0
775		Ok	0.016
774		Ok	0.062
773		Ok	0.016
772		Ok	0.062
771		Ok	0.032
770		Ok	0.093
769		Ok	0
768		Ok	0.016
767		Ok	0
766		Ok	0.062
765		Ok	0.016
764		Ok	0.016
763		Ok	0.069
762		Ok	0.015
761		Ok	0.061
760		Ok	0.058
759		Ok	0.006
758		Ok	0.02
757		Ok	0.069
756		Ok	0
755		Ok	0.078
754		Ok	0.078
753		Ok	0.016
752		Ok	0.015
751		Ok	0.094
750		Ok	0.062
749		Ok	0.016
748		Ok	0.016
747		Ok	0.062
746		Ok	0.016
745		Ok	0.078
744		Ok	0.016
743		Ok	0.062
742		Ok	0.016
741		Ok	0.015
740		Ok	0.063
739		Ok	0
738		Ok	0.031
737		Ok	0.063
736		Ok	0.015
735		Ok	0
734		Ok	0.063
733		Ok	0.015
732		Ok	0.203
731		Ok	0
730		Ok	0.016
729		Ok	0
728		Ok	0.047
727		Ok	0.015
726		Ok	0.047
725		Ok	0.016
724		Ok	0.047
723		Ok	0.047
722		Ok	0.062
721		Ok	0.016
720		Ok	0.047
719		Ok	0.031
718		Ok	0.062
717		Ok	0.11
716		Ok	0
715		Ok	0.031
714		Ok	0.063
713		Ok	0.015
712		Ok	0
711		Ok	0.016
710		Ok	0.062
709		Ok	0.016
708		Ok	0.031
707		Ok	0.016
706		Ok	0
705		Ok	0.015
704		Ok	0.063
703		Ok	0.016
702		Ok	0.031
701		Ok	0
700		Ok	0.078
699		Ok	0.016
698		Ok	0
697		Ok	0.015
696		Ok	0.063
695		Ok	0.015
694		Ok	0.094
693		Ok	0.031
692		Ok	0.078
691		Ok	0.016
690		Ok	0.016
689		Ok	0.047
688		Ok	0.078
687		Ok	0.062
686		Ok	0.016
685		Ok	0.015
684		Ok	0.063
683		Ok	0.016
682		Ok	0.015
681		Ok	0
680		Ok	0.063
679		Ok	0.015
678		Ok	0.018
677		Ok	0.065
676		Ok	0.009
675		Ok	0.007
674		Ok	0.046
673		Ok	0.018
672		Ok	0.056
671		Ok	0.017
670		Ok	0.062
669		Ok	0.016
668		Ok	0.078
667		Ok	0.016
666		Ok	0
665		Ok	0.015
664		Ok	0.079
663		Ok	0
662		Ok	0.015
661		Ok	0.063
660		Ok	0.015
659		Ok	0.016
658		Ok	0.062
657		Ok	0.016
656		Ok	0.016
655		Ok	0.062
654		Ok	0.031
653		Ok	0.078
652		Ok	0.016
651		Ok	0.063
650		Ok	0.093
649		Ok	0.016
648		Ok	0.016
647		Ok	0.062
646		Ok	0
645		Ok	0.094
644		Ok	0
643		Ok	0.109
642		Ok	0.016
641		Ok	0.078
640		Ok	0
639		Ok	0.031
638		Ok	0.032
637		Ok	0.015
636		Ok	0.063
635		Ok	0
634		Ok	0.015
633		Ok	0.078
632		Ok	0.203
631		Ok	0
630		Ok	0.016
629		Ok	0.031
628		Ok	0
627		Ok	0.031
626		Ok	0.016
625		Subgroup deleted	0.015
624		Ok	0.016
623		Ok	0.016
622		Ok	0.015
621		Ok	0.016
620		Ok	0.016
619		Ok	0.015
618		Ok	0.016
617		Ok	0.078
616		Ok	0
615		Ok	0.016
614		Ok	0.046
613		Ok	0.032
612		Ok	0
611		Ok	0.062
610		Ok	0.031
609		Ok	0.063
608		Ok	0.016
607		Ok	0.015
606		Ok	0.047
605		Ok	0.016
604		Ok	0.047
603		Ok	0.015
602		Ok	0.047
601		Ok	0.031
600		Ok	0.047
599		Ok	0.063
598		Ok	0.015
597		Subgroup deleted	0.016
596		Subgroup deleted	0.016
595		Ok	0.015
594		Ok	0.047
593		Subgroup deleted	0.125
592		Ok	0.031
591		Subgroup deleted	0
590		Ok	0.047
589		Subgroup deleted	0.031
588		Ok	0.079
587		Ok	0.078
586		Subgroup deleted	0.015
585		Ok	0.063
584		Ok	0.031
583		Ok	0.063
582		Ok	0.015
581		Ok	0.016
580		Ok	0.047
579		Ok	0.015
578		Ok	0.016
577		Ok	0.047
576		Ok	0.031
575		Ok	0.094
574		Ok	0.062
573		Ok	0.078
572		Ok	0.085
571		Ok	0.016
570		Ok	0.054
569		Subgroup deleted	0.055
568		Subgroup deleted	0.026
567		Ok	0.062
566		Ok	0.016
565		Ok	0.078
564		Ok	0.078
563		Ok	0
562		Ok	0.032
561		Ok	0.046
560		Ok	0.016
559		Ok	0
558		Ok	0.078
557		Ok	0
556		Ok	0.094
555		Ok	0.016
554		Ok	0.062
553		Ok	0.094
552		Ok	0
551		Ok	0.015
550		Ok	0.079
549		Ok	0.093
548		Ok	0
547		Ok	0.032
546		Subgroup deleted	0.062
545		Subgroup deleted	0.109
544		Ok	0.016
543		Ok	0.078
542		Ok	0.016
541		Ok	0.015
540		Ok	0.063
539		Ok	0.016
538		Ok	0
537		Ok	0.062
536		Ok	0.016
535		Ok	0.078
534		Ok	0
533		Ok	0.015
532		Ok	0.375
531		Ok	0.047
530		Ok	0.078
529		Ok	0.016
528		Ok	0.015
527		Ok	0.078
526		Ok	0
525		Ok	0.047
524		Ok	0.094
523		Ok	0.016
522		Ok	0.078
521		Ok	0.062
520		Ok	0.078
519		Ok	0.032
518		Ok	0.078
517		Ok	0.015
516		Ok	0.063
515		Ok	0.015
514		Ok	0.016
513		Ok	0.063
512		Ok	0.078
511		Ok	0.015
510		Ok	0.032
509		Ok	0.078
508		Ok	0
507		Ok	0.031
506		Ok	0.094
505		Ok	0
504		Ok	0.062
503		Ok	0.016
502		Ok	0.078
501		Subgroup deleted	0.047
500		Ok	0.078
499		Ok	0
498		Ok	0.016
497		Ok	0.078
496		Ok	0.015
495		Ok	0.063
494		Ok	0.012
493		Ok	0.066
492		Ok	0.017
491		Ok	0.057
490		Ok	0.083
489		Ok	0.063
488		Ok	0.015
487		Ok	0.016
486		Ok	0
485		Ok	0.063
484		Ok	0.015
483		Ok	0.047
482		Ok	0.016
481		Ok	0.015
480		Ok	0.094
479		Ok	0.047
478		Ok	0.016
477		Ok	0.015
476		Ok	0.078
475		Ok	0.016
474		Ok	0.047
473		Ok	0.015
472		Ok	0.016
471		Ok	0.078
470		Ok	0.016
469		Ok	0.078
468		Ok	0.016
467		Ok	0.062
466		Ok	0.016
465		Ok	0
464		Ok	0.094
463		Ok	0.093
462		Ok	0.094
461		Ok	0.016
460		Ok	0.078
459		Ok	0.015
458		Ok	0.016
457		Ok	0
456		Ok	0.062
455		Ok	0.016
454		Ok	0.063
453		Ok	0.015
452		Ok	0.016
451		Ok	0.203
450		Ok	0.078
449		Ok	0
448		Ok	0.047
447		Ok	0.016
446		Ok	0.062
445		Ok	0.016
444		Ok	0.031
443		Ok	0.016
442		Ok	0.062
441		Ok	0.016
440		Ok	0.078
439		Ok	0.062
438		Ok	0.047
437		Ok	0.016
436		Ok	0.156
435		Ok	0.016
434		Ok	0.094
433		Ok	0.031
432		Ok	0.422
431		Ok	0.062
430		Ok	0.047
429		Ok	0.016
428		Ok	0.015
427		Ok	0.078
426		Ok	0.078
425		Ok	0.016
424		Ok	0.078
423		Ok	0.094
422		Ok	0.078
421		Ok	0.016
420		Ok	0.015
419		Ok	0.063
418		Ok	0.078
417		Ok	0.016
416		Ok	0.031
415		Ok	0.062
414		Ok	0.016
413		Ok	0.062
412		Ok	0.016
411		Ok	0
410		Ok	0.063
409		Ok	0.015
408		Ok	0.057
407		Ok	0.071
406		Ok	0.139
405		Ok	0
404		Ok	0.016
403		Ok	0.078
402		Ok	0.093
401		Ok	0.172
400		Ok	0.016
399		Ok	0
398		Ok	0.094
397		Ok	0.062
396		Ok	0.031
395		Ok	0.079
394		Ok	0.078
393		Ok	0.015
392		Ok	0.016
391		Ok	0.047
390		Ok	0.015
389		Ok	0.016
388		Ok	0.063
387		Ok	0.015
386		Ok	0.016
385		Ok	0.172
384		Ok	0
383		Ok	0.015
382		Ok	0.063
381		Ok	0.015
380		Ok	0.016
379		Subgroup deleted	0.063
378		Subgroup deleted	0.015
377		Ok	0.016
376		Ok	0.047
375		Ok	0.015
374		Ok	0.016
373		Ok	0
372		Ok	0.063
371		Ok	0.124
370		Ok	0.079
369		Ok	0.015
368		Ok	0.016
367		Ok	0
366		Ok	0.094
365		Ok	0
364		Ok	0.031
363		Ok	0.015
362		Ok	0
361		Ok	0.032
360		Ok	0.015
359		Ok	0
358		Ok	0.016
357		Ok	0.031
356		Ok	0.016
355		Ok	0.016
354		Ok	0.062
353		Ok	0
352		Ok	0.063
351		Ok	0.046
350		Ok	0
349		Ok	0.016
348		Ok	0.031
347		Ok	0.016
346		Ok	0.016
345		Ok	0
344		Ok	0.046
343		Ok	0.016
342		Ok	0
341		Ok	0.047
340		Ok	0
339		Ok	0.016
338		Ok	0.046
337		Ok	0.016
336		Ok	0.078
335		Ok	0
334		Ok	0.031
333		Ok	0.079
332		Ok	0.328
331		Ok	0.125
330		Ok	0.063
329		Ok	0.062
328		Ok	0.032
327		Subgroup deleted	0.062
326		Subgroup deleted	0.016
325		Subgroup deleted	0.078
324		Subgroup deleted	0
323		Subgroup deleted	0.016
322		Subgroup deleted	0.125
321		Subgroup deleted	0.015
320		Ok	0.016
319		Ok	0.062
318		Subgroup deleted	0
317		Subgroup deleted	0.032
316		Subgroup deleted	0.109
315		Ok	0.016
314		Ok	0.171
313		Ok	0.11
312		Ok	0.032
311		Ok	0.015
310		Ok	0.047
309		Ok	0.016
308		Ok	0.047
307		Ok	0.015
306		Ok	0.094
305		Ok	0.078
304		Ok	0.016
303		Ok	0.015
302		Ok	0.079
301		Ok	0.062
300		Ok	0.016
299		Ok	0.015
298		Ok	0.032
297		Ok	0.015
296		Ok	0.063
295		Ok	0.015
294		Ok	0.11
293		Ok	0.015
292		Ok	0.094
291		Ok	0.063
290		Ok	0.031
289		Ok	0.062
288		Ok	0.063
287		Ok	0.094
286		Ok	0.015
285		Ok	0.063
284		Ok	0.015
283		Ok	0.016
282		Ok	0.08
281		Ok	0.063
280		Ok	0.015
279		Subgroup deleted	0.048
278		Ok	0.076
277		Ok	0.094
276		Ok	0.094
275		Subgroup deleted	0.078
274		Subgroup deleted	0.016
273		Subgroup deleted	0.062
272		Ok	0.016
271		Ok	0
270		Ok	0.078
269		Ok	0.016
268		Ok	0.015
267		Ok	0.063
266		Subgroup deleted	0
265		Ok	0.015
264		Ok	0
263		Ok	0.063
262		Ok	0.015
261		Ok	0.016
260		Ok	0
259		Ok	0.063
258		Ok	0.015
257		Ok	0
256		Ok	0.016
255		Ok	0.062
254		Ok	0.016
253		Ok	0
252		Ok	0.015
251		Ok	0
250		Ok	0.079
249		Ok	0.015
248		Ok	0.094
247		Ok	0.016
246		Ok	0.078
245		Ok	0.015
244		Ok	0.063
243		Ok	0
242		Ok	0.015
241		Ok	0.016
240		Ok	0.047
239		Ok	0.016
238		Ok	0.015
237		Ok	0.063
236		Ok	0.015
235		Ok	0.047
234		Ok	0.032
233		Ok	0.062
232		Ok	0.016
231		Ok	0.046
230		Ok	0.079
229		Subgroup deleted	0.093
228		Subgroup deleted	0
227		Ok	0.063
226		Subgroup deleted	0.015
225		Subgroup deleted	0.016
224		Ok	0.063
223		Ok	0.078
222		Ok	0.062
221		Ok	0.032
220		Ok	0.046
219		Ok	0.079
218		Ok	0.062
217		Ok	0.031
216		Ok	0.063
215		Ok	0.078
214		Ok	0.031
213		Ok	0.438
212		Ok	0.047
211		Ok	0.031
210		Ok	0.032
209		Ok	0.031
208		Ok	0.016
207		Ok	0.031
206		Ok	0.015
205		Ok	0.016
204		Ok	0.125
203		Ok	0.031
202		Ok	0.016
201		Ok	0.062
200		Ok	0.11
199		Ok	0.062
198		Ok	0.157
197		Ok	0.078
196		Ok	0.078
195		Ok	0.094
194		Ok	0.062
193		Ok	0.063
192		Ok	0.046
191		Ok	0.063
190		Ok	0.016
189		Ok	0.062
188		Ok	0.063
187		Ok	0.015
186		Ok	0.094
185		Ok	0.016
184		Ok	0.078
183		Ok	0.078
182		Ok	0.031
181		Ok	0.078
180		Ok	0.063
179		Ok	0.031
178		Ok	0.078
177		Ok	0.016
176		Ok	0.078
175		Subgroup deleted	0.062
174		Ok	0.032
173		Subgroup deleted	0.062
172		Subgroup deleted	0
171		Ok	0.016
170		Subgroup deleted	0.015
169		Subgroup deleted	0.141
168		Subgroup deleted	0.016
167		Ok	0.062
166		Ok	0.012
165		Subgroup deleted	0.009
164		Subgroup deleted	0.063
163		Subgroup deleted	0.045
162		Ok	0.028
161		Ok	0.141
160		Ok	0.016
159		Ok	0.078
158		Ok	0.25
157		Ok	0.016
156		Ok	0.062
155		Ok	0.031
154		Ok	0.063
153		Ok	0.078
152		Ok	0.016
151		Subgroup deleted	0.015
150		Ok	0
149		Ok	0.25
148		Ok	0.109
147		Ok	0.063
146		Ok	0.047
145		Ok	0.031
144		Ok	0.063
143		Ok	0.031
142		Ok	0.062
141		Ok	0.016
140		Subgroup deleted	0.094
139		Subgroup deleted	0
138		Subgroup deleted	0.015
137		Subgroup deleted	0.157
136		Subgroup deleted	0.046
135		Ok	0.047
134		Ok	0.063
133		Ok	0.047
132		Ok	0.015
131		Ok	0.016
130		Ok	0.031
129		Ok	0.016
128		Ok	0
127		Ok	0.016
126		Ok	0.031
125		Ok	0
124		Ok	0.031
123		Ok	0.078
122		Ok	0.078
121		Ok	0.078
120		Ok	0.047
119		Ok	0.016
118		Ok	0
117		Ok	0.078
116		Ok	0
115		Ok	0.031
114		Ok	0
113		Ok	0.36
112		Ok	0.015
111		Ok	0.016
110		Ok	0.078
109		Ok	0
108		Subgroup deleted	0.094
107		Ok	0.016
106		Ok	0.062
105		Ok	0.016
104		Ok	0.015
103		Ok	0.047
102		Ok	0.031
101		Ok	0.063
100		Ok	0.031
99		Ok	0
98		Subgroup deleted	0.047
97		Ok	0.016
96		Ok	0
95		Subgroup deleted	0.015
94		Ok	0.063
93		Ok	0.014
92		Ok	0.052
91		Ok	0.016
90		Ok	0.048
89		Ok	0.024
88		Ok	0.066
87		Ok	0.015
86		Ok	0.063
85		Ok	0
84		Ok	0.015
83		Ok	0.016
82		Ok	0
81		Ok	0.047
80		Ok	0.016
79		Ok	0.015
78		Ok	0
77		Ok	0.078
76		Ok	0
75		Ok	0.079
74		Ok	0.031
73		Ok	0.047
72		Ok	0.031
71		Ok	0.062
70		Ok	0
69		Ok	0.032
68		Ok	0.078
67		Ok	0.015
66		Ok	0.063
65		Ok	0.016
64		Ok	0.078
63		Ok	0.015
62		Ok	0.016
61		Ok	0.047
60		Ok	0.031
59		Ok	0
58		Ok	0.078
57		Ok	0.016
56		Ok	0.015
55		Ok	0.078
54		Ok	0
53		Ok	0.063
52		Ok	0.031
51		Subgroup deleted	0
50		Ok	0.063
49		Ok	0.015
48		Ok	0.016
47		Ok	0.047
46		Ok	0.031
45		Ok	0.031
44		Ok	0.016
43		Ok	0.078
42		Ok	0.016
41		Ok	0.125
40		Ok	0.015
39		Ok	0.016
38		Ok	0.062
37		Ok	0.032
36		Ok	0.062
35		Ok	0
34		Ok	0.047
33		Ok	0.016
32		Ok	0.047
31		Ok	0
30		Ok	0.015
29		Ok	0.047
28		Ok	0
27		Ok	0.016
26		Ok	0.015
25		Ok	0.032
24		Ok	0.015
23		Ok	0.016
22		Ok	0
21		Ok	0.062
20		Ok	0.032
19		Ok	0.078
18		Ok	0.015
17		Ok	0.063
16		Ok	0.062
15		Ok	0.032
14		Ok	0.109
13		Ok	0.391
12		Ok	0.047
11		Ok	0.016
10		Ok	0.062
9		Ok	0.032
8		Ok	0.046
7		Subgroup deleted	0
6		Ok	0.032
5		Ok	0.078
4		Ok	0
3		Ok	0.015
2		Ok	0.235
1		Subgroup deleted	0.047

The finish time is: Sun, 19 Jun 2022 15:20:32
